taskid: 0 hostname: Yongui-MacBookPro.local
 starting wrf task            0  of            1
 ./module_io_quilt_old.F        2931 F
Quilting with   1 groups of   0 I/O tasks.
 Ntasks in X            1 , ntasks in Y            1
  Domain # 1: dx =  1000.000 m
WRF V4.6.0 MODEL
No git found or not a git repository, git commit version not available.
 *************************************
 Parent domain
 ids,ide,jds,jde            1         101           1         101
 ims,ime,jms,jme           -4         106          -4         106
 ips,ipe,jps,jpe            1         101           1         101
 *************************************
DYNAMICS OPTION: Eulerian Mass Coordinate
   alloc_space_field: domain            1 ,             316752708  bytes allocated
  med_initialdata_input: calling input_input
   Input data is acceptable to use: wrfinput_d01
 CURRENT DATE          = 2007-06-01_00:00:00
 SIMULATION START DATE = 2007-06-01_00:00:00
Timing for processing wrfinput file (stream 0) for domain        1:    0.11018 elapsed seconds
Max map factor in domain 1 =  1.00. Scale the dt in the model accordingly.
INPUT LandUse = "USGS"
 LANDUSE TYPE = "USGS" FOUND          61  CATEGORIES           2  SEASONS WATER CATEGORY =           16  SNOW CATEGORY =            0
Timing for Writing wrfout_d01_2007-06-01_00:00:00 for domain        1:    0.17528 elapsed seconds
 Tile Strategy is not specified. Assuming 1D-Y
WRF TILE   1 IS      1 IE    101 JS      1 JE    101
WRF NUMBER OF TILES =   1
d01 2007-06-01_00:00:00  ----------------------------------------
d01 2007-06-01_00:00:00  W-DAMPING  BEGINS AT W-COURANT NUMBER =    1.00000000
d01 2007-06-01_00:00:00  ----------------------------------------
 KDM6AD_DIAG enter wrapper im/km/jm/dt=         100          34         100   5.00000000    
 KDM6AD_DIAG after scratch allocation
 KDM6AD_DIAG after host_to_double copy
 KDM6AD_DIAG after kdm6_step rc=           0
 KDM6AD_DIAG after handle_close rc=           0
 KDM6AD_DIAG before double_to_host copy
 KDM6AD_DIAG after double_to_host copy
 KDM6AD_STATE th min/max=   298.338501       715.945679    
 KDM6AD_STATE qv min/max=   0.00000000       1.81113500E-02
 KDM6AD_STATE qc min/max=   0.00000000       0.00000000    
 KDM6AD_STATE qi min/max=   0.00000000       0.00000000    
 KDM6AD_STATE nc min/max=   0.00000000       0.00000000    
 KDM6AD_DIAG leaving wrapper
KDM6AD_DIRECT_PARITY_TEMP th max_abs= 3.05176E-05 at_abs=(6,5,1) max_rel= 1.02271E-07 at_rel=(86,1,28)
KDM6AD_DIRECT_PARITY_TEMP qv max_abs= 2.14650E-14 at_abs=(12,19,89) max_rel= 1.00000E+00 at_rel=(37,19,1)
KDM6AD_DIRECT_PARITY_TEMP qc max_abs= 0.00000E+00 at_abs=(1,1,1) max_rel= 0.00000E+00 at_rel=(1,1,1)
KDM6AD_DIRECT_PARITY_TEMP qr max_abs= 0.00000E+00 at_abs=(1,1,1) max_rel= 0.00000E+00 at_rel=(1,1,1)
KDM6AD_DIRECT_PARITY_TEMP qi max_abs= 0.00000E+00 at_abs=(1,1,1) max_rel= 0.00000E+00 at_rel=(1,1,1)
KDM6AD_DIRECT_PARITY_TEMP qs max_abs= 0.00000E+00 at_abs=(1,1,1) max_rel= 0.00000E+00 at_rel=(1,1,1)
KDM6AD_DIRECT_PARITY_TEMP qg max_abs= 0.00000E+00 at_abs=(1,1,1) max_rel= 0.00000E+00 at_rel=(1,1,1)
KDM6AD_DIRECT_PARITY_TEMP qnn max_abs= 8.99965E+07 at_abs=(38,34,1) max_rel= 8.99965E-01 at_rel=(38,34,1)
KDM6AD_DIRECT_PARITY_TEMP qnc max_abs= 0.00000E+00 at_abs=(1,1,1) max_rel= 0.00000E+00 at_rel=(1,1,1)
KDM6AD_DIRECT_PARITY_TEMP qni max_abs= 0.00000E+00 at_abs=(1,1,1) max_rel= 0.00000E+00 at_rel=(1,1,1)
KDM6AD_DIRECT_PARITY_TEMP qnr max_abs= 0.00000E+00 at_abs=(1,1,1) max_rel= 0.00000E+00 at_rel=(1,1,1)
KDM6AD_DIRECT_PARITY_TEMP qib max_abs= 0.00000E+00 at_abs=(1,1,1) max_rel= 0.00000E+00 at_rel=(1,1,1)
Timing for main: time 2007-06-01_00:00:05 on domain   1:    2.12326 elapsed seconds
 KDM6AD_DIAG enter wrapper im/km/jm/dt=         100          34         100   5.00000000    
 KDM6AD_DIAG after scratch allocation
 KDM6AD_DIAG after host_to_double copy
 KDM6AD_DIAG after kdm6_step rc=           0
 KDM6AD_DIAG after handle_close rc=           0
 KDM6AD_DIAG before double_to_host copy
 KDM6AD_DIAG after double_to_host copy
 KDM6AD_STATE th min/max=   298.329468       715.942993    
 KDM6AD_STATE qv min/max=   0.00000000       1.81130655E-02
 KDM6AD_STATE qc min/max=   0.00000000       0.00000000    
 KDM6AD_STATE qi min/max=   0.00000000       0.00000000    
 KDM6AD_STATE nc min/max=   0.00000000       0.00000000    
 KDM6AD_DIAG leaving wrapper
KDM6AD_DIRECT_PARITY_TEMP th max_abs= 3.05176E-05 at_abs=(21,4,1) max_rel= 1.02289E-07 at_rel=(82,1,91)
KDM6AD_DIRECT_PARITY_TEMP qv max_abs= 1.01952E-14 at_abs=(69,19,9) max_rel= 1.00000E+00 at_rel=(85,19,1)
KDM6AD_DIRECT_PARITY_TEMP qc max_abs= 0.00000E+00 at_abs=(1,1,1) max_rel= 0.00000E+00 at_rel=(1,1,1)
KDM6AD_DIRECT_PARITY_TEMP qr max_abs= 0.00000E+00 at_abs=(1,1,1) max_rel= 0.00000E+00 at_rel=(1,1,1)
KDM6AD_DIRECT_PARITY_TEMP qi max_abs= 0.00000E+00 at_abs=(1,1,1) max_rel= 0.00000E+00 at_rel=(1,1,1)
KDM6AD_DIRECT_PARITY_TEMP qs max_abs= 0.00000E+00 at_abs=(1,1,1) max_rel= 0.00000E+00 at_rel=(1,1,1)
KDM6AD_DIRECT_PARITY_TEMP qg max_abs= 0.00000E+00 at_abs=(1,1,1) max_rel= 0.00000E+00 at_rel=(1,1,1)
KDM6AD_DIRECT_PARITY_TEMP qnn max_abs= 5.08000E+03 at_abs=(43,8,93) max_rel= 5.08000E-05 at_rel=(43,8,93)
KDM6AD_DIRECT_PARITY_TEMP qnc max_abs= 0.00000E+00 at_abs=(1,1,1) max_rel= 0.00000E+00 at_rel=(1,1,1)
KDM6AD_DIRECT_PARITY_TEMP qni max_abs= 0.00000E+00 at_abs=(1,1,1) max_rel= 0.00000E+00 at_rel=(1,1,1)
KDM6AD_DIRECT_PARITY_TEMP qnr max_abs= 0.00000E+00 at_abs=(1,1,1) max_rel= 0.00000E+00 at_rel=(1,1,1)
KDM6AD_DIRECT_PARITY_TEMP qib max_abs= 0.00000E+00 at_abs=(1,1,1) max_rel= 0.00000E+00 at_rel=(1,1,1)
Timing for main: time 2007-06-01_00:00:10 on domain   1:    0.60374 elapsed seconds
 KDM6AD_DIAG enter wrapper im/km/jm/dt=         100          34         100   5.00000000    
 KDM6AD_DIAG after scratch allocation
 KDM6AD_DIAG after host_to_double copy
 KDM6AD_DIAG after kdm6_step rc=           0
 KDM6AD_DIAG after handle_close rc=           0
 KDM6AD_DIAG before double_to_host copy
 KDM6AD_DIAG after double_to_host copy
 KDM6AD_STATE th min/max=   298.320557       715.946716    
 KDM6AD_STATE qv min/max=   0.00000000       1.81150660E-02
 KDM6AD_STATE qc min/max=   0.00000000       0.00000000    
 KDM6AD_STATE qi min/max=   0.00000000       0.00000000    
 KDM6AD_STATE nc min/max=   0.00000000       0.00000000    
 KDM6AD_DIAG leaving wrapper
KDM6AD_DIRECT_PARITY_TEMP th max_abs= 3.05176E-05 at_abs=(6,2,1) max_rel= 1.02233E-07 at_rel=(85,1,35)
KDM6AD_DIRECT_PARITY_TEMP qv max_abs= 1.17091E-14 at_abs=(62,19,39) max_rel= 1.00000E+00 at_rel=(1,19,1)
KDM6AD_DIRECT_PARITY_TEMP qc max_abs= 0.00000E+00 at_abs=(1,1,1) max_rel= 0.00000E+00 at_rel=(1,1,1)
KDM6AD_DIRECT_PARITY_TEMP qr max_abs= 0.00000E+00 at_abs=(1,1,1) max_rel= 0.00000E+00 at_rel=(1,1,1)
KDM6AD_DIRECT_PARITY_TEMP qi max_abs= 0.00000E+00 at_abs=(1,1,1) max_rel= 0.00000E+00 at_rel=(1,1,1)
KDM6AD_DIRECT_PARITY_TEMP qs max_abs= 0.00000E+00 at_abs=(1,1,1) max_rel= 0.00000E+00 at_rel=(1,1,1)
KDM6AD_DIRECT_PARITY_TEMP qg max_abs= 0.00000E+00 at_abs=(1,1,1) max_rel= 0.00000E+00 at_rel=(1,1,1)
KDM6AD_DIRECT_PARITY_TEMP qnn max_abs= 8.81600E+03 at_abs=(65,8,51) max_rel= 8.81600E-05 at_rel=(65,8,51)
KDM6AD_DIRECT_PARITY_TEMP qnc max_abs= 0.00000E+00 at_abs=(1,1,1) max_rel= 0.00000E+00 at_rel=(1,1,1)
KDM6AD_DIRECT_PARITY_TEMP qni max_abs= 0.00000E+00 at_abs=(1,1,1) max_rel= 0.00000E+00 at_rel=(1,1,1)
KDM6AD_DIRECT_PARITY_TEMP qnr max_abs= 0.00000E+00 at_abs=(1,1,1) max_rel= 0.00000E+00 at_rel=(1,1,1)
KDM6AD_DIRECT_PARITY_TEMP qib max_abs= 0.00000E+00 at_abs=(1,1,1) max_rel= 0.00000E+00 at_rel=(1,1,1)
Timing for main: time 2007-06-01_00:00:15 on domain   1:    0.58612 elapsed seconds
 KDM6AD_DIAG enter wrapper im/km/jm/dt=         100          34         100   5.00000000    
 KDM6AD_DIAG after scratch allocation
 KDM6AD_DIAG after host_to_double copy
 KDM6AD_DIAG after kdm6_step rc=           0
 KDM6AD_DIAG after handle_close rc=           0
 KDM6AD_DIAG before double_to_host copy
 KDM6AD_DIAG after double_to_host copy
 KDM6AD_STATE th min/max=   298.311768       715.945435    
 KDM6AD_STATE qv min/max=   0.00000000       1.81172397E-02
 KDM6AD_STATE qc min/max=   0.00000000       0.00000000    
 KDM6AD_STATE qi min/max=   0.00000000       0.00000000    
 KDM6AD_STATE nc min/max=   0.00000000       0.00000000    
 KDM6AD_DIAG leaving wrapper
KDM6AD_DIRECT_PARITY_TEMP th max_abs= 3.05176E-05 at_abs=(10,4,1) max_rel= 1.02263E-07 at_rel=(4,1,59)
KDM6AD_DIRECT_PARITY_TEMP qv max_abs= 4.87670E-15 at_abs=(54,19,78) max_rel= 1.00000E+00 at_rel=(49,20,1)
KDM6AD_DIRECT_PARITY_TEMP qc max_abs= 0.00000E+00 at_abs=(1,1,1) max_rel= 0.00000E+00 at_rel=(1,1,1)
KDM6AD_DIRECT_PARITY_TEMP qr max_abs= 0.00000E+00 at_abs=(1,1,1) max_rel= 0.00000E+00 at_rel=(1,1,1)
KDM6AD_DIRECT_PARITY_TEMP qi max_abs= 0.00000E+00 at_abs=(1,1,1) max_rel= 0.00000E+00 at_rel=(1,1,1)
KDM6AD_DIRECT_PARITY_TEMP qs max_abs= 0.00000E+00 at_abs=(1,1,1) max_rel= 0.00000E+00 at_rel=(1,1,1)
KDM6AD_DIRECT_PARITY_TEMP qg max_abs= 0.00000E+00 at_abs=(1,1,1) max_rel= 0.00000E+00 at_rel=(1,1,1)
KDM6AD_DIRECT_PARITY_TEMP qnn max_abs= 1.12480E+04 at_abs=(43,8,93) max_rel= 1.12480E-04 at_rel=(43,8,93)
KDM6AD_DIRECT_PARITY_TEMP qnc max_abs= 0.00000E+00 at_abs=(1,1,1) max_rel= 0.00000E+00 at_rel=(1,1,1)
KDM6AD_DIRECT_PARITY_TEMP qni max_abs= 0.00000E+00 at_abs=(1,1,1) max_rel= 0.00000E+00 at_rel=(1,1,1)
KDM6AD_DIRECT_PARITY_TEMP qnr max_abs= 0.00000E+00 at_abs=(1,1,1) max_rel= 0.00000E+00 at_rel=(1,1,1)
KDM6AD_DIRECT_PARITY_TEMP qib max_abs= 0.00000E+00 at_abs=(1,1,1) max_rel= 0.00000E+00 at_rel=(1,1,1)
Timing for main: time 2007-06-01_00:00:20 on domain   1:    0.60068 elapsed seconds
 KDM6AD_DIAG enter wrapper im/km/jm/dt=         100          34         100   5.00000000    
 KDM6AD_DIAG after scratch allocation
 KDM6AD_DIAG after host_to_double copy
 KDM6AD_DIAG after kdm6_step rc=           0
 KDM6AD_DIAG after handle_close rc=           0
 KDM6AD_DIAG before double_to_host copy
 KDM6AD_DIAG after double_to_host copy
 KDM6AD_STATE th min/max=   298.303558       715.944458    
 KDM6AD_STATE qv min/max=   0.00000000       1.81195214E-02
 KDM6AD_STATE qc min/max=   0.00000000       0.00000000    
 KDM6AD_STATE qi min/max=   0.00000000       0.00000000    
 KDM6AD_STATE nc min/max=   0.00000000       0.00000000    
 KDM6AD_DIAG leaving wrapper
KDM6AD_DIRECT_PARITY_TEMP th max_abs= 3.05176E-05 at_abs=(40,2,1) max_rel= 1.02282E-07 at_rel=(15,1,58)
KDM6AD_DIRECT_PARITY_TEMP qv max_abs= 1.33404E-14 at_abs=(11,19,84) max_rel= 1.00000E+00 at_rel=(54,19,1)
KDM6AD_DIRECT_PARITY_TEMP qc max_abs= 0.00000E+00 at_abs=(1,1,1) max_rel= 0.00000E+00 at_rel=(1,1,1)
KDM6AD_DIRECT_PARITY_TEMP qr max_abs= 0.00000E+00 at_abs=(1,1,1) max_rel= 0.00000E+00 at_rel=(1,1,1)
KDM6AD_DIRECT_PARITY_TEMP qi max_abs= 0.00000E+00 at_abs=(1,1,1) max_rel= 0.00000E+00 at_rel=(1,1,1)
KDM6AD_DIRECT_PARITY_TEMP qs max_abs= 0.00000E+00 at_abs=(1,1,1) max_rel= 0.00000E+00 at_rel=(1,1,1)
KDM6AD_DIRECT_PARITY_TEMP qg max_abs= 0.00000E+00 at_abs=(1,1,1) max_rel= 0.00000E+00 at_rel=(1,1,1)
KDM6AD_DIRECT_PARITY_TEMP qnn max_abs= 1.43760E+04 at_abs=(65,8,51) max_rel= 1.43760E-04 at_rel=(65,8,51)
KDM6AD_DIRECT_PARITY_TEMP qnc max_abs= 0.00000E+00 at_abs=(1,1,1) max_rel= 0.00000E+00 at_rel=(1,1,1)
KDM6AD_DIRECT_PARITY_TEMP qni max_abs= 0.00000E+00 at_abs=(1,1,1) max_rel= 0.00000E+00 at_rel=(1,1,1)
KDM6AD_DIRECT_PARITY_TEMP qnr max_abs= 0.00000E+00 at_abs=(1,1,1) max_rel= 0.00000E+00 at_rel=(1,1,1)
KDM6AD_DIRECT_PARITY_TEMP qib max_abs= 0.00000E+00 at_abs=(1,1,1) max_rel= 0.00000E+00 at_rel=(1,1,1)
Timing for main: time 2007-06-01_00:00:25 on domain   1:    0.59192 elapsed seconds
 KDM6AD_DIAG enter wrapper im/km/jm/dt=         100          34         100   5.00000000    
 KDM6AD_DIAG after scratch allocation
 KDM6AD_DIAG after host_to_double copy
 KDM6AD_DIAG after kdm6_step rc=           0
 KDM6AD_DIAG after handle_close rc=           0
 KDM6AD_DIAG before double_to_host copy
 KDM6AD_DIAG after double_to_host copy
 KDM6AD_STATE th min/max=   298.296112       715.943115    
 KDM6AD_STATE qv min/max=   0.00000000       1.81219131E-02
 KDM6AD_STATE qc min/max=   0.00000000       0.00000000    
 KDM6AD_STATE qi min/max=   0.00000000       0.00000000    
 KDM6AD_STATE nc min/max=   0.00000000       0.00000000    
 KDM6AD_DIAG leaving wrapper
KDM6AD_DIRECT_PARITY_TEMP th max_abs= 3.05176E-05 at_abs=(57,4,1) max_rel= 1.02251E-07 at_rel=(6,1,72)
KDM6AD_DIRECT_PARITY_TEMP qv max_abs= 4.95484E-15 at_abs=(99,19,87) max_rel= 1.00000E+00 at_rel=(18,19,1)
KDM6AD_DIRECT_PARITY_TEMP qc max_abs= 0.00000E+00 at_abs=(1,1,1) max_rel= 0.00000E+00 at_rel=(1,1,1)
KDM6AD_DIRECT_PARITY_TEMP qr max_abs= 0.00000E+00 at_abs=(1,1,1) max_rel= 0.00000E+00 at_rel=(1,1,1)
KDM6AD_DIRECT_PARITY_TEMP qi max_abs= 0.00000E+00 at_abs=(1,1,1) max_rel= 0.00000E+00 at_rel=(1,1,1)
KDM6AD_DIRECT_PARITY_TEMP qs max_abs= 0.00000E+00 at_abs=(1,1,1) max_rel= 0.00000E+00 at_rel=(1,1,1)
KDM6AD_DIRECT_PARITY_TEMP qg max_abs= 0.00000E+00 at_abs=(1,1,1) max_rel= 0.00000E+00 at_rel=(1,1,1)
KDM6AD_DIRECT_PARITY_TEMP qnn max_abs= 1.67920E+04 at_abs=(65,8,51) max_rel= 1.67920E-04 at_rel=(65,8,51)
KDM6AD_DIRECT_PARITY_TEMP qnc max_abs= 0.00000E+00 at_abs=(1,1,1) max_rel= 0.00000E+00 at_rel=(1,1,1)
KDM6AD_DIRECT_PARITY_TEMP qni max_abs= 0.00000E+00 at_abs=(1,1,1) max_rel= 0.00000E+00 at_rel=(1,1,1)
KDM6AD_DIRECT_PARITY_TEMP qnr max_abs= 0.00000E+00 at_abs=(1,1,1) max_rel= 0.00000E+00 at_rel=(1,1,1)
KDM6AD_DIRECT_PARITY_TEMP qib max_abs= 0.00000E+00 at_abs=(1,1,1) max_rel= 0.00000E+00 at_rel=(1,1,1)
Timing for main: time 2007-06-01_00:00:30 on domain   1:    0.60512 elapsed seconds
 KDM6AD_DIAG enter wrapper im/km/jm/dt=         100          34         100   5.00000000    
 KDM6AD_DIAG after scratch allocation
 KDM6AD_DIAG after host_to_double copy
 KDM6AD_DIAG after kdm6_step rc=           0
 KDM6AD_DIAG after handle_close rc=           0
 KDM6AD_DIAG before double_to_host copy
 KDM6AD_DIAG after double_to_host copy
 KDM6AD_STATE th min/max=   298.289368       715.942505    
 KDM6AD_STATE qv min/max=   0.00000000       1.81243792E-02
 KDM6AD_STATE qc min/max=   0.00000000       0.00000000    
 KDM6AD_STATE qi min/max=   0.00000000       0.00000000    
 KDM6AD_STATE nc min/max=   0.00000000       0.00000000    
 KDM6AD_DIAG leaving wrapper
KDM6AD_DIRECT_PARITY_TEMP th max_abs= 3.05176E-05 at_abs=(29,4,1) max_rel= 1.02278E-07 at_rel=(47,1,68)
KDM6AD_DIRECT_PARITY_TEMP qv max_abs= 9.15216E-15 at_abs=(86,19,20) max_rel= 1.00000E+00 at_rel=(98,19,1)
KDM6AD_DIRECT_PARITY_TEMP qc max_abs= 0.00000E+00 at_abs=(1,1,1) max_rel= 0.00000E+00 at_rel=(1,1,1)
KDM6AD_DIRECT_PARITY_TEMP qr max_abs= 0.00000E+00 at_abs=(1,1,1) max_rel= 0.00000E+00 at_rel=(1,1,1)
KDM6AD_DIRECT_PARITY_TEMP qi max_abs= 0.00000E+00 at_abs=(1,1,1) max_rel= 0.00000E+00 at_rel=(1,1,1)
KDM6AD_DIRECT_PARITY_TEMP qs max_abs= 0.00000E+00 at_abs=(1,1,1) max_rel= 0.00000E+00 at_rel=(1,1,1)
KDM6AD_DIRECT_PARITY_TEMP qg max_abs= 0.00000E+00 at_abs=(1,1,1) max_rel= 0.00000E+00 at_rel=(1,1,1)
KDM6AD_DIRECT_PARITY_TEMP qnn max_abs= 1.95760E+04 at_abs=(43,8,93) max_rel= 1.95760E-04 at_rel=(43,8,93)
KDM6AD_DIRECT_PARITY_TEMP qnc max_abs= 0.00000E+00 at_abs=(1,1,1) max_rel= 0.00000E+00 at_rel=(1,1,1)
KDM6AD_DIRECT_PARITY_TEMP qni max_abs= 0.00000E+00 at_abs=(1,1,1) max_rel= 0.00000E+00 at_rel=(1,1,1)
KDM6AD_DIRECT_PARITY_TEMP qnr max_abs= 0.00000E+00 at_abs=(1,1,1) max_rel= 0.00000E+00 at_rel=(1,1,1)
KDM6AD_DIRECT_PARITY_TEMP qib max_abs= 0.00000E+00 at_abs=(1,1,1) max_rel= 0.00000E+00 at_rel=(1,1,1)
Timing for main: time 2007-06-01_00:00:35 on domain   1:    0.58420 elapsed seconds
 KDM6AD_DIAG enter wrapper im/km/jm/dt=         100          34         100   5.00000000    
 KDM6AD_DIAG after scratch allocation
 KDM6AD_DIAG after host_to_double copy
 KDM6AD_DIAG after kdm6_step rc=           0
 KDM6AD_DIAG after handle_close rc=           0
 KDM6AD_DIAG before double_to_host copy
 KDM6AD_DIAG after double_to_host copy
 KDM6AD_STATE th min/max=   298.281860       715.941406    
 KDM6AD_STATE qv min/max=   0.00000000       1.81269161E-02
 KDM6AD_STATE qc min/max=   0.00000000       0.00000000    
 KDM6AD_STATE qi min/max=   0.00000000       0.00000000    
 KDM6AD_STATE nc min/max=   0.00000000       0.00000000    
 KDM6AD_DIAG leaving wrapper
KDM6AD_DIRECT_PARITY_TEMP th max_abs= 3.05176E-05 at_abs=(16,5,1) max_rel= 1.02266E-07 at_rel=(47,1,14)
KDM6AD_DIRECT_PARITY_TEMP qv max_abs= 5.92716E-15 at_abs=(30,19,100) max_rel= 1.00000E+00 at_rel=(48,20,1)
KDM6AD_DIRECT_PARITY_TEMP qc max_abs= 0.00000E+00 at_abs=(1,1,1) max_rel= 0.00000E+00 at_rel=(1,1,1)
KDM6AD_DIRECT_PARITY_TEMP qr max_abs= 0.00000E+00 at_abs=(1,1,1) max_rel= 0.00000E+00 at_rel=(1,1,1)
KDM6AD_DIRECT_PARITY_TEMP qi max_abs= 0.00000E+00 at_abs=(1,1,1) max_rel= 0.00000E+00 at_rel=(1,1,1)
KDM6AD_DIRECT_PARITY_TEMP qs max_abs= 0.00000E+00 at_abs=(1,1,1) max_rel= 0.00000E+00 at_rel=(1,1,1)
KDM6AD_DIRECT_PARITY_TEMP qg max_abs= 0.00000E+00 at_abs=(1,1,1) max_rel= 0.00000E+00 at_rel=(1,1,1)
KDM6AD_DIRECT_PARITY_TEMP qnn max_abs= 2.18640E+04 at_abs=(43,8,93) max_rel= 2.18640E-04 at_rel=(43,8,93)
KDM6AD_DIRECT_PARITY_TEMP qnc max_abs= 0.00000E+00 at_abs=(1,1,1) max_rel= 0.00000E+00 at_rel=(1,1,1)
KDM6AD_DIRECT_PARITY_TEMP qni max_abs= 0.00000E+00 at_abs=(1,1,1) max_rel= 0.00000E+00 at_rel=(1,1,1)
KDM6AD_DIRECT_PARITY_TEMP qnr max_abs= 0.00000E+00 at_abs=(1,1,1) max_rel= 0.00000E+00 at_rel=(1,1,1)
KDM6AD_DIRECT_PARITY_TEMP qib max_abs= 0.00000E+00 at_abs=(1,1,1) max_rel= 0.00000E+00 at_rel=(1,1,1)
Timing for main: time 2007-06-01_00:00:40 on domain   1:    0.58258 elapsed seconds
 KDM6AD_DIAG enter wrapper im/km/jm/dt=         100          34         100   5.00000000    
 KDM6AD_DIAG after scratch allocation
 KDM6AD_DIAG after host_to_double copy
 KDM6AD_DIAG after kdm6_step rc=           0
 KDM6AD_DIAG after handle_close rc=           0
 KDM6AD_DIAG before double_to_host copy
 KDM6AD_DIAG after double_to_host copy
 KDM6AD_STATE th min/max=   298.273621       715.941528    
 KDM6AD_STATE qv min/max=   0.00000000       1.81295145E-02
 KDM6AD_STATE qc min/max=   0.00000000       0.00000000    
 KDM6AD_STATE qi min/max=   0.00000000       0.00000000    
 KDM6AD_STATE nc min/max=   0.00000000       0.00000000    
 KDM6AD_DIAG leaving wrapper
KDM6AD_DIRECT_PARITY_TEMP th max_abs= 3.05176E-05 at_abs=(37,1,1) max_rel= 1.02223E-07 at_rel=(22,1,28)
KDM6AD_DIRECT_PARITY_TEMP qv max_abs= 5.68651E-15 at_abs=(83,19,36) max_rel= 1.00000E+00 at_rel=(3,19,1)
KDM6AD_DIRECT_PARITY_TEMP qc max_abs= 0.00000E+00 at_abs=(1,1,1) max_rel= 0.00000E+00 at_rel=(1,1,1)
KDM6AD_DIRECT_PARITY_TEMP qr max_abs= 0.00000E+00 at_abs=(1,1,1) max_rel= 0.00000E+00 at_rel=(1,1,1)
KDM6AD_DIRECT_PARITY_TEMP qi max_abs= 0.00000E+00 at_abs=(1,1,1) max_rel= 0.00000E+00 at_rel=(1,1,1)
KDM6AD_DIRECT_PARITY_TEMP qs max_abs= 0.00000E+00 at_abs=(1,1,1) max_rel= 0.00000E+00 at_rel=(1,1,1)
KDM6AD_DIRECT_PARITY_TEMP qg max_abs= 0.00000E+00 at_abs=(1,1,1) max_rel= 0.00000E+00 at_rel=(1,1,1)
KDM6AD_DIRECT_PARITY_TEMP qnn max_abs= 2.48800E+04 at_abs=(43,8,93) max_rel= 2.48800E-04 at_rel=(43,8,93)
KDM6AD_DIRECT_PARITY_TEMP qnc max_abs= 0.00000E+00 at_abs=(1,1,1) max_rel= 0.00000E+00 at_rel=(1,1,1)
KDM6AD_DIRECT_PARITY_TEMP qni max_abs= 0.00000E+00 at_abs=(1,1,1) max_rel= 0.00000E+00 at_rel=(1,1,1)
KDM6AD_DIRECT_PARITY_TEMP qnr max_abs= 0.00000E+00 at_abs=(1,1,1) max_rel= 0.00000E+00 at_rel=(1,1,1)
KDM6AD_DIRECT_PARITY_TEMP qib max_abs= 0.00000E+00 at_abs=(1,1,1) max_rel= 0.00000E+00 at_rel=(1,1,1)
Timing for main: time 2007-06-01_00:00:45 on domain   1:    0.58553 elapsed seconds
 KDM6AD_DIAG enter wrapper im/km/jm/dt=         100          34         100   5.00000000    
 KDM6AD_DIAG after scratch allocation
 KDM6AD_DIAG after host_to_double copy
 KDM6AD_DIAG after kdm6_step rc=           0
 KDM6AD_DIAG after handle_close rc=           0
 KDM6AD_DIAG before double_to_host copy
 KDM6AD_DIAG after double_to_host copy
 KDM6AD_STATE th min/max=   298.265869       715.943115    
 KDM6AD_STATE qv min/max=   0.00000000       1.81321632E-02
 KDM6AD_STATE qc min/max=   0.00000000       0.00000000    
 KDM6AD_STATE qi min/max=   0.00000000       0.00000000    
 KDM6AD_STATE nc min/max=   0.00000000       0.00000000    
 KDM6AD_DIAG leaving wrapper
