taskid: 0 hostname: 10.nate.com
 starting wrf task            0  of            1
 ./module_io_quilt_old.F        2931 F
Quilting with   1 groups of   0 I/O tasks.
 Ntasks in X            1 , ntasks in Y            1
  Domain # 1: dx =  1000.000 m
WRF V4.6.0 MODEL
No git found or not a git repository, git commit version not available.
 *************************************
 Parent domain
 ids,ide,jds,jde            1         101           1         101
 ims,ime,jms,jme           -4         106          -4         106
 ips,ipe,jps,jpe            1         101           1         101
 *************************************
DYNAMICS OPTION: Eulerian Mass Coordinate
   alloc_space_field: domain            1 ,             316752708  bytes allocated
  med_initialdata_input: calling input_input
   Input data is acceptable to use: wrfinput_d01
 CURRENT DATE          = 2007-06-01_00:00:00
 SIMULATION START DATE = 2007-06-01_00:00:00
Timing for processing wrfinput file (stream 0) for domain        1:    0.10629 elapsed seconds
Max map factor in domain 1 =  1.00. Scale the dt in the model accordingly.
INPUT LandUse = "USGS"
 LANDUSE TYPE = "USGS" FOUND          61  CATEGORIES           2  SEASONS WATER CATEGORY =           16  SNOW CATEGORY =            0
Timing for Writing wrfout_d01_2007-06-01_00:00:00 for domain        1:    0.17695 elapsed seconds
 Tile Strategy is not specified. Assuming 1D-Y
WRF TILE   1 IS      1 IE    101 JS      1 JE    101
WRF NUMBER OF TILES =   1
d01 2007-06-01_00:00:00  ----------------------------------------
d01 2007-06-01_00:00:00  W-DAMPING  BEGINS AT W-COURANT NUMBER =    1.00000000
d01 2007-06-01_00:00:00  ----------------------------------------
 KDM6AD_DIAG enter wrapper im/km/jm/dt=         100          34         100   5.00000000    
 KDM6AD_DIAG after scratch allocation
 KDM6AD_DIAG after host_to_double copy
 KDM6AD_DIAG after kdm6_step rc=           0
 KDM6AD_DIAG after handle_close rc=           0
 KDM6AD_DIAG before double_to_host copy
 KDM6AD_DIAG after double_to_host copy
 KDM6AD_STATE th min/max=   298.333679       715.945312    
 KDM6AD_STATE qv min/max=   0.00000000       1.81113444E-02
 KDM6AD_STATE qc min/max=   0.00000000       0.00000000    
 KDM6AD_STATE qi min/max=   0.00000000       0.00000000    
 KDM6AD_STATE nc min/max=   0.00000000       0.00000000    
 KDM6AD_DIAG leaving wrapper
KDM6AD_DIRECT_PARITY_TEMP th max_abs= 3.05176E-05 at_abs=(49,2,1) max_rel= 1.02250E-07 at_rel=(19,1,41)
KDM6AD_DIRECT_PARITY_TEMP qv max_abs= 2.11224E-14 at_abs=(80,19,56) max_rel= 1.00000E+00 at_rel=(10,19,1)
KDM6AD_DIRECT_PARITY_TEMP qc max_abs= 0.00000E+00 at_abs=(1,1,1) max_rel= 0.00000E+00 at_rel=(1,1,1)
KDM6AD_DIRECT_PARITY_TEMP qr max_abs= 0.00000E+00 at_abs=(1,1,1) max_rel= 0.00000E+00 at_rel=(1,1,1)
KDM6AD_DIRECT_PARITY_TEMP qi max_abs= 0.00000E+00 at_abs=(1,1,1) max_rel= 0.00000E+00 at_rel=(1,1,1)
KDM6AD_DIRECT_PARITY_TEMP qs max_abs= 0.00000E+00 at_abs=(1,1,1) max_rel= 0.00000E+00 at_rel=(1,1,1)
KDM6AD_DIRECT_PARITY_TEMP qg max_abs= 0.00000E+00 at_abs=(1,1,1) max_rel= 0.00000E+00 at_rel=(1,1,1)
KDM6AD_DIRECT_PARITY_TEMP qnn max_abs= 8.99965E+07 at_abs=(10,34,1) max_rel= 8.99965E-01 at_rel=(10,34,1)
KDM6AD_DIRECT_PARITY_TEMP qnc max_abs= 0.00000E+00 at_abs=(1,1,1) max_rel= 0.00000E+00 at_rel=(1,1,1)
KDM6AD_DIRECT_PARITY_TEMP qni max_abs= 0.00000E+00 at_abs=(1,1,1) max_rel= 0.00000E+00 at_rel=(1,1,1)
KDM6AD_DIRECT_PARITY_TEMP qnr max_abs= 0.00000E+00 at_abs=(1,1,1) max_rel= 0.00000E+00 at_rel=(1,1,1)
KDM6AD_DIRECT_PARITY_TEMP qib max_abs= 0.00000E+00 at_abs=(1,1,1) max_rel= 0.00000E+00 at_rel=(1,1,1)
Timing for main: time 2007-06-01_00:00:05 on domain   1:    2.10760 elapsed seconds
 KDM6AD_DIAG enter wrapper im/km/jm/dt=         100          34         100   5.00000000    
 KDM6AD_DIAG after scratch allocation
 KDM6AD_DIAG after host_to_double copy
 KDM6AD_DIAG after kdm6_step rc=           0
 KDM6AD_DIAG after handle_close rc=           0
 KDM6AD_DIAG before double_to_host copy
 KDM6AD_DIAG after double_to_host copy
 KDM6AD_STATE th min/max=   298.321808       715.942749    
 KDM6AD_STATE qv min/max=   0.00000000       1.81130376E-02
 KDM6AD_STATE qc min/max=   0.00000000       0.00000000    
 KDM6AD_STATE qi min/max=   0.00000000       0.00000000    
 KDM6AD_STATE nc min/max=   0.00000000       0.00000000    
 KDM6AD_DIAG leaving wrapper
KDM6AD_DIRECT_PARITY_TEMP th max_abs= 3.05176E-05 at_abs=(7,4,1) max_rel= 1.02266E-07 at_rel=(75,1,29)
KDM6AD_DIRECT_PARITY_TEMP qv max_abs= 7.27337E-15 at_abs=(47,19,7) max_rel= 1.00000E+00 at_rel=(8,19,1)
KDM6AD_DIRECT_PARITY_TEMP qc max_abs= 0.00000E+00 at_abs=(1,1,1) max_rel= 0.00000E+00 at_rel=(1,1,1)
KDM6AD_DIRECT_PARITY_TEMP qr max_abs= 0.00000E+00 at_abs=(1,1,1) max_rel= 0.00000E+00 at_rel=(1,1,1)
KDM6AD_DIRECT_PARITY_TEMP qi max_abs= 0.00000E+00 at_abs=(1,1,1) max_rel= 0.00000E+00 at_rel=(1,1,1)
KDM6AD_DIRECT_PARITY_TEMP qs max_abs= 0.00000E+00 at_abs=(1,1,1) max_rel= 0.00000E+00 at_rel=(1,1,1)
KDM6AD_DIRECT_PARITY_TEMP qg max_abs= 0.00000E+00 at_abs=(1,1,1) max_rel= 0.00000E+00 at_rel=(1,1,1)
KDM6AD_DIRECT_PARITY_TEMP qnn max_abs= 4.62400E+03 at_abs=(62,8,59) max_rel= 4.62400E-05 at_rel=(62,8,59)
KDM6AD_DIRECT_PARITY_TEMP qnc max_abs= 0.00000E+00 at_abs=(1,1,1) max_rel= 0.00000E+00 at_rel=(1,1,1)
KDM6AD_DIRECT_PARITY_TEMP qni max_abs= 0.00000E+00 at_abs=(1,1,1) max_rel= 0.00000E+00 at_rel=(1,1,1)
KDM6AD_DIRECT_PARITY_TEMP qnr max_abs= 0.00000E+00 at_abs=(1,1,1) max_rel= 0.00000E+00 at_rel=(1,1,1)
KDM6AD_DIRECT_PARITY_TEMP qib max_abs= 0.00000E+00 at_abs=(1,1,1) max_rel= 0.00000E+00 at_rel=(1,1,1)
Timing for main: time 2007-06-01_00:00:10 on domain   1:    0.58504 elapsed seconds
 KDM6AD_DIAG enter wrapper im/km/jm/dt=         100          34         100   5.00000000    
 KDM6AD_DIAG after scratch allocation
 KDM6AD_DIAG after host_to_double copy
 KDM6AD_DIAG after kdm6_step rc=           0
 KDM6AD_DIAG after handle_close rc=           0
 KDM6AD_DIAG before double_to_host copy
 KDM6AD_DIAG after double_to_host copy
 KDM6AD_STATE th min/max=   298.310974       715.946167    
 KDM6AD_STATE qv min/max=   0.00000000       1.81150027E-02
 KDM6AD_STATE qc min/max=   0.00000000       0.00000000    
 KDM6AD_STATE qi min/max=   0.00000000       0.00000000    
 KDM6AD_STATE nc min/max=   0.00000000       0.00000000    
 KDM6AD_DIAG leaving wrapper
KDM6AD_DIRECT_PARITY_TEMP th max_abs= 3.05176E-05 at_abs=(99,3,1) max_rel= 1.02264E-07 at_rel=(78,1,17)
KDM6AD_DIRECT_PARITY_TEMP qv max_abs= 1.26239E-14 at_abs=(83,19,100) max_rel= 1.00000E+00 at_rel=(27,19,1)
KDM6AD_DIRECT_PARITY_TEMP qc max_abs= 0.00000E+00 at_abs=(1,1,1) max_rel= 0.00000E+00 at_rel=(1,1,1)
KDM6AD_DIRECT_PARITY_TEMP qr max_abs= 0.00000E+00 at_abs=(1,1,1) max_rel= 0.00000E+00 at_rel=(1,1,1)
KDM6AD_DIRECT_PARITY_TEMP qi max_abs= 0.00000E+00 at_abs=(1,1,1) max_rel= 0.00000E+00 at_rel=(1,1,1)
KDM6AD_DIRECT_PARITY_TEMP qs max_abs= 0.00000E+00 at_abs=(1,1,1) max_rel= 0.00000E+00 at_rel=(1,1,1)
KDM6AD_DIRECT_PARITY_TEMP qg max_abs= 0.00000E+00 at_abs=(1,1,1) max_rel= 0.00000E+00 at_rel=(1,1,1)
KDM6AD_DIRECT_PARITY_TEMP qnn max_abs= 8.16800E+03 at_abs=(62,8,90) max_rel= 8.16800E-05 at_rel=(62,8,90)
KDM6AD_DIRECT_PARITY_TEMP qnc max_abs= 0.00000E+00 at_abs=(1,1,1) max_rel= 0.00000E+00 at_rel=(1,1,1)
KDM6AD_DIRECT_PARITY_TEMP qni max_abs= 0.00000E+00 at_abs=(1,1,1) max_rel= 0.00000E+00 at_rel=(1,1,1)
KDM6AD_DIRECT_PARITY_TEMP qnr max_abs= 0.00000E+00 at_abs=(1,1,1) max_rel= 0.00000E+00 at_rel=(1,1,1)
KDM6AD_DIRECT_PARITY_TEMP qib max_abs= 0.00000E+00 at_abs=(1,1,1) max_rel= 0.00000E+00 at_rel=(1,1,1)
Timing for main: time 2007-06-01_00:00:15 on domain   1:    0.59386 elapsed seconds
 KDM6AD_DIAG enter wrapper im/km/jm/dt=         100          34         100   5.00000000    
 KDM6AD_DIAG after scratch allocation
 KDM6AD_DIAG after host_to_double copy
 KDM6AD_DIAG after kdm6_step rc=           0
 KDM6AD_DIAG after handle_close rc=           0
 KDM6AD_DIAG before double_to_host copy
 KDM6AD_DIAG after double_to_host copy
 KDM6AD_STATE th min/max=   298.301086       715.946167    
 KDM6AD_STATE qv min/max=   0.00000000       1.81171466E-02
 KDM6AD_STATE qc min/max=   0.00000000       0.00000000    
 KDM6AD_STATE qi min/max=   0.00000000       0.00000000    
 KDM6AD_STATE nc min/max=   0.00000000       0.00000000    
 KDM6AD_DIAG leaving wrapper
KDM6AD_DIRECT_PARITY_TEMP th max_abs= 3.05176E-05 at_abs=(49,2,1) max_rel= 1.02245E-07 at_rel=(99,1,18)
KDM6AD_DIRECT_PARITY_TEMP qv max_abs= 1.37365E-14 at_abs=(90,19,14) max_rel= 1.00000E+00 at_rel=(90,22,1)
KDM6AD_DIRECT_PARITY_TEMP qc max_abs= 0.00000E+00 at_abs=(1,1,1) max_rel= 0.00000E+00 at_rel=(1,1,1)
KDM6AD_DIRECT_PARITY_TEMP qr max_abs= 0.00000E+00 at_abs=(1,1,1) max_rel= 0.00000E+00 at_rel=(1,1,1)
KDM6AD_DIRECT_PARITY_TEMP qi max_abs= 0.00000E+00 at_abs=(1,1,1) max_rel= 0.00000E+00 at_rel=(1,1,1)
KDM6AD_DIRECT_PARITY_TEMP qs max_abs= 0.00000E+00 at_abs=(1,1,1) max_rel= 0.00000E+00 at_rel=(1,1,1)
KDM6AD_DIRECT_PARITY_TEMP qg max_abs= 0.00000E+00 at_abs=(1,1,1) max_rel= 0.00000E+00 at_rel=(1,1,1)
KDM6AD_DIRECT_PARITY_TEMP qnn max_abs= 1.12560E+04 at_abs=(62,8,90) max_rel= 1.12560E-04 at_rel=(62,8,90)
KDM6AD_DIRECT_PARITY_TEMP qnc max_abs= 0.00000E+00 at_abs=(1,1,1) max_rel= 0.00000E+00 at_rel=(1,1,1)
KDM6AD_DIRECT_PARITY_TEMP qni max_abs= 0.00000E+00 at_abs=(1,1,1) max_rel= 0.00000E+00 at_rel=(1,1,1)
KDM6AD_DIRECT_PARITY_TEMP qnr max_abs= 0.00000E+00 at_abs=(1,1,1) max_rel= 0.00000E+00 at_rel=(1,1,1)
KDM6AD_DIRECT_PARITY_TEMP qib max_abs= 0.00000E+00 at_abs=(1,1,1) max_rel= 0.00000E+00 at_rel=(1,1,1)
Timing for main: time 2007-06-01_00:00:20 on domain   1:    0.60363 elapsed seconds
 KDM6AD_DIAG enter wrapper im/km/jm/dt=         100          34         100   5.00000000    
 KDM6AD_DIAG after scratch allocation
 KDM6AD_DIAG after host_to_double copy
 KDM6AD_DIAG after kdm6_step rc=           0
 KDM6AD_DIAG after handle_close rc=           0
 KDM6AD_DIAG before double_to_host copy
 KDM6AD_DIAG after double_to_host copy
 KDM6AD_STATE th min/max=   298.292175       715.944763    
 KDM6AD_STATE qv min/max=   0.00000000       1.81194134E-02
 KDM6AD_STATE qc min/max=   0.00000000       0.00000000    
 KDM6AD_STATE qi min/max=   0.00000000       0.00000000    
 KDM6AD_STATE nc min/max=   0.00000000       0.00000000    
 KDM6AD_DIAG leaving wrapper
KDM6AD_DIRECT_PARITY_TEMP th max_abs= 3.05176E-05 at_abs=(53,3,1) max_rel= 1.02269E-07 at_rel=(41,1,15)
KDM6AD_DIRECT_PARITY_TEMP qv max_abs= 1.16399E-14 at_abs=(51,19,66) max_rel= 1.00000E+00 at_rel=(97,19,1)
KDM6AD_DIRECT_PARITY_TEMP qc max_abs= 0.00000E+00 at_abs=(1,1,1) max_rel= 0.00000E+00 at_rel=(1,1,1)
KDM6AD_DIRECT_PARITY_TEMP qr max_abs= 0.00000E+00 at_abs=(1,1,1) max_rel= 0.00000E+00 at_rel=(1,1,1)
KDM6AD_DIRECT_PARITY_TEMP qi max_abs= 0.00000E+00 at_abs=(1,1,1) max_rel= 0.00000E+00 at_rel=(1,1,1)
KDM6AD_DIRECT_PARITY_TEMP qs max_abs= 0.00000E+00 at_abs=(1,1,1) max_rel= 0.00000E+00 at_rel=(1,1,1)
KDM6AD_DIRECT_PARITY_TEMP qg max_abs= 0.00000E+00 at_abs=(1,1,1) max_rel= 0.00000E+00 at_rel=(1,1,1)
KDM6AD_DIRECT_PARITY_TEMP qnn max_abs= 1.40320E+04 at_abs=(62,8,90) max_rel= 1.40320E-04 at_rel=(62,8,90)
KDM6AD_DIRECT_PARITY_TEMP qnc max_abs= 0.00000E+00 at_abs=(1,1,1) max_rel= 0.00000E+00 at_rel=(1,1,1)
KDM6AD_DIRECT_PARITY_TEMP qni max_abs= 0.00000E+00 at_abs=(1,1,1) max_rel= 0.00000E+00 at_rel=(1,1,1)
KDM6AD_DIRECT_PARITY_TEMP qnr max_abs= 0.00000E+00 at_abs=(1,1,1) max_rel= 0.00000E+00 at_rel=(1,1,1)
KDM6AD_DIRECT_PARITY_TEMP qib max_abs= 0.00000E+00 at_abs=(1,1,1) max_rel= 0.00000E+00 at_rel=(1,1,1)
Timing for main: time 2007-06-01_00:00:25 on domain   1:    0.57991 elapsed seconds
 KDM6AD_DIAG enter wrapper im/km/jm/dt=         100          34         100   5.00000000    
 KDM6AD_DIAG after scratch allocation
 KDM6AD_DIAG after host_to_double copy
 KDM6AD_DIAG after kdm6_step rc=           0
 KDM6AD_DIAG after handle_close rc=           0
 KDM6AD_DIAG before double_to_host copy
 KDM6AD_DIAG after double_to_host copy
 KDM6AD_STATE th min/max=   298.284119       715.943359    
 KDM6AD_STATE qv min/max=   0.00000000       1.81217678E-02
 KDM6AD_STATE qc min/max=   0.00000000       0.00000000    
 KDM6AD_STATE qi min/max=   0.00000000       0.00000000    
 KDM6AD_STATE nc min/max=   0.00000000       0.00000000    
 KDM6AD_DIAG leaving wrapper
KDM6AD_DIRECT_PARITY_TEMP th max_abs= 3.05176E-05 at_abs=(88,2,1) max_rel= 1.02270E-07 at_rel=(81,1,82)
KDM6AD_DIRECT_PARITY_TEMP qv max_abs= 6.82383E-15 at_abs=(54,19,53) max_rel= 1.00000E+00 at_rel=(90,19,1)
KDM6AD_DIRECT_PARITY_TEMP qc max_abs= 0.00000E+00 at_abs=(1,1,1) max_rel= 0.00000E+00 at_rel=(1,1,1)
KDM6AD_DIRECT_PARITY_TEMP qr max_abs= 0.00000E+00 at_abs=(1,1,1) max_rel= 0.00000E+00 at_rel=(1,1,1)
KDM6AD_DIRECT_PARITY_TEMP qi max_abs= 0.00000E+00 at_abs=(1,1,1) max_rel= 0.00000E+00 at_rel=(1,1,1)
KDM6AD_DIRECT_PARITY_TEMP qs max_abs= 0.00000E+00 at_abs=(1,1,1) max_rel= 0.00000E+00 at_rel=(1,1,1)
KDM6AD_DIRECT_PARITY_TEMP qg max_abs= 0.00000E+00 at_abs=(1,1,1) max_rel= 0.00000E+00 at_rel=(1,1,1)
KDM6AD_DIRECT_PARITY_TEMP qnn max_abs= 1.73200E+04 at_abs=(62,8,90) max_rel= 1.73200E-04 at_rel=(62,8,90)
KDM6AD_DIRECT_PARITY_TEMP qnc max_abs= 0.00000E+00 at_abs=(1,1,1) max_rel= 0.00000E+00 at_rel=(1,1,1)
KDM6AD_DIRECT_PARITY_TEMP qni max_abs= 0.00000E+00 at_abs=(1,1,1) max_rel= 0.00000E+00 at_rel=(1,1,1)
KDM6AD_DIRECT_PARITY_TEMP qnr max_abs= 0.00000E+00 at_abs=(1,1,1) max_rel= 0.00000E+00 at_rel=(1,1,1)
KDM6AD_DIRECT_PARITY_TEMP qib max_abs= 0.00000E+00 at_abs=(1,1,1) max_rel= 0.00000E+00 at_rel=(1,1,1)
Timing for main: time 2007-06-01_00:00:30 on domain   1:    0.60312 elapsed seconds
 KDM6AD_DIAG enter wrapper im/km/jm/dt=         100          34         100   5.00000000    
 KDM6AD_DIAG after scratch allocation
 KDM6AD_DIAG after host_to_double copy
 KDM6AD_DIAG after kdm6_step rc=           0
 KDM6AD_DIAG after handle_close rc=           0
 KDM6AD_DIAG before double_to_host copy
 KDM6AD_DIAG after double_to_host copy
 KDM6AD_STATE th min/max=   298.276886       715.942017    
 KDM6AD_STATE qv min/max=   0.00000000       1.81242004E-02
 KDM6AD_STATE qc min/max=   0.00000000       0.00000000    
 KDM6AD_STATE qi min/max=   0.00000000       0.00000000    
 KDM6AD_STATE nc min/max=   0.00000000       0.00000000    
 KDM6AD_DIAG leaving wrapper
KDM6AD_DIRECT_PARITY_TEMP th max_abs= 3.05176E-05 at_abs=(33,4,1) max_rel= 1.02270E-07 at_rel=(53,1,76)
KDM6AD_DIRECT_PARITY_TEMP qv max_abs= 6.53438E-15 at_abs=(72,19,24) max_rel= 1.00000E+00 at_rel=(64,19,1)
KDM6AD_DIRECT_PARITY_TEMP qc max_abs= 0.00000E+00 at_abs=(1,1,1) max_rel= 0.00000E+00 at_rel=(1,1,1)
KDM6AD_DIRECT_PARITY_TEMP qr max_abs= 0.00000E+00 at_abs=(1,1,1) max_rel= 0.00000E+00 at_rel=(1,1,1)
KDM6AD_DIRECT_PARITY_TEMP qi max_abs= 0.00000E+00 at_abs=(1,1,1) max_rel= 0.00000E+00 at_rel=(1,1,1)
KDM6AD_DIRECT_PARITY_TEMP qs max_abs= 0.00000E+00 at_abs=(1,1,1) max_rel= 0.00000E+00 at_rel=(1,1,1)
KDM6AD_DIRECT_PARITY_TEMP qg max_abs= 0.00000E+00 at_abs=(1,1,1) max_rel= 0.00000E+00 at_rel=(1,1,1)
KDM6AD_DIRECT_PARITY_TEMP qnn max_abs= 1.95600E+04 at_abs=(62,8,90) max_rel= 1.95600E-04 at_rel=(62,8,90)
KDM6AD_DIRECT_PARITY_TEMP qnc max_abs= 0.00000E+00 at_abs=(1,1,1) max_rel= 0.00000E+00 at_rel=(1,1,1)
KDM6AD_DIRECT_PARITY_TEMP qni max_abs= 0.00000E+00 at_abs=(1,1,1) max_rel= 0.00000E+00 at_rel=(1,1,1)
KDM6AD_DIRECT_PARITY_TEMP qnr max_abs= 0.00000E+00 at_abs=(1,1,1) max_rel= 0.00000E+00 at_rel=(1,1,1)
KDM6AD_DIRECT_PARITY_TEMP qib max_abs= 0.00000E+00 at_abs=(1,1,1) max_rel= 0.00000E+00 at_rel=(1,1,1)
Timing for main: time 2007-06-01_00:00:35 on domain   1:    0.59659 elapsed seconds
 KDM6AD_DIAG enter wrapper im/km/jm/dt=         100          34         100   5.00000000    
 KDM6AD_DIAG after scratch allocation
 KDM6AD_DIAG after host_to_double copy
 KDM6AD_DIAG after kdm6_step rc=           0
 KDM6AD_DIAG after handle_close rc=           0
 KDM6AD_DIAG before double_to_host copy
 KDM6AD_DIAG after double_to_host copy
 KDM6AD_STATE th min/max=   298.270538       715.941406    
 KDM6AD_STATE qv min/max=   0.00000000       1.81266963E-02
 KDM6AD_STATE qc min/max=   0.00000000       0.00000000    
 KDM6AD_STATE qi min/max=   0.00000000       0.00000000    
 KDM6AD_STATE nc min/max=   0.00000000       0.00000000    
 KDM6AD_DIAG leaving wrapper
KDM6AD_DIRECT_PARITY_TEMP th max_abs= 3.05176E-05 at_abs=(96,3,1) max_rel= 1.02260E-07 at_rel=(14,1,78)
KDM6AD_DIRECT_PARITY_TEMP qv max_abs= 2.00165E-15 at_abs=(26,19,81) max_rel= 1.00000E+00 at_rel=(7,19,1)
KDM6AD_DIRECT_PARITY_TEMP qc max_abs= 0.00000E+00 at_abs=(1,1,1) max_rel= 0.00000E+00 at_rel=(1,1,1)
KDM6AD_DIRECT_PARITY_TEMP qr max_abs= 0.00000E+00 at_abs=(1,1,1) max_rel= 0.00000E+00 at_rel=(1,1,1)
KDM6AD_DIRECT_PARITY_TEMP qi max_abs= 0.00000E+00 at_abs=(1,1,1) max_rel= 0.00000E+00 at_rel=(1,1,1)
KDM6AD_DIRECT_PARITY_TEMP qs max_abs= 0.00000E+00 at_abs=(1,1,1) max_rel= 0.00000E+00 at_rel=(1,1,1)
KDM6AD_DIRECT_PARITY_TEMP qg max_abs= 0.00000E+00 at_abs=(1,1,1) max_rel= 0.00000E+00 at_rel=(1,1,1)
KDM6AD_DIRECT_PARITY_TEMP qnn max_abs= 2.18800E+04 at_abs=(62,8,90) max_rel= 2.18800E-04 at_rel=(62,8,90)
KDM6AD_DIRECT_PARITY_TEMP qnc max_abs= 0.00000E+00 at_abs=(1,1,1) max_rel= 0.00000E+00 at_rel=(1,1,1)
KDM6AD_DIRECT_PARITY_TEMP qni max_abs= 0.00000E+00 at_abs=(1,1,1) max_rel= 0.00000E+00 at_rel=(1,1,1)
KDM6AD_DIRECT_PARITY_TEMP qnr max_abs= 0.00000E+00 at_abs=(1,1,1) max_rel= 0.00000E+00 at_rel=(1,1,1)
KDM6AD_DIRECT_PARITY_TEMP qib max_abs= 0.00000E+00 at_abs=(1,1,1) max_rel= 0.00000E+00 at_rel=(1,1,1)
Timing for main: time 2007-06-01_00:00:40 on domain   1:    0.59654 elapsed seconds
 KDM6AD_DIAG enter wrapper im/km/jm/dt=         100          34         100   5.00000000    
 KDM6AD_DIAG after scratch allocation
 KDM6AD_DIAG after host_to_double copy
 KDM6AD_DIAG after kdm6_step rc=           0
 KDM6AD_DIAG after handle_close rc=           0
 KDM6AD_DIAG before double_to_host copy
 KDM6AD_DIAG after double_to_host copy
 KDM6AD_STATE th min/max=   298.264984       715.941895    
 KDM6AD_STATE qv min/max=   0.00000000       1.81292556E-02
 KDM6AD_STATE qc min/max=   0.00000000       0.00000000    
 KDM6AD_STATE qi min/max=   0.00000000       0.00000000    
 KDM6AD_STATE nc min/max=   0.00000000       0.00000000    
 KDM6AD_DIAG leaving wrapper
KDM6AD_DIRECT_PARITY_TEMP th max_abs= 3.05176E-05 at_abs=(53,4,1) max_rel= 1.02291E-07 at_rel=(74,1,36)
KDM6AD_DIRECT_PARITY_TEMP qv max_abs= 3.99794E-15 at_abs=(29,19,77) max_rel= 1.00000E+00 at_rel=(3,19,1)
KDM6AD_DIRECT_PARITY_TEMP qc max_abs= 0.00000E+00 at_abs=(1,1,1) max_rel= 0.00000E+00 at_rel=(1,1,1)
KDM6AD_DIRECT_PARITY_TEMP qr max_abs= 0.00000E+00 at_abs=(1,1,1) max_rel= 0.00000E+00 at_rel=(1,1,1)
KDM6AD_DIRECT_PARITY_TEMP qi max_abs= 0.00000E+00 at_abs=(1,1,1) max_rel= 0.00000E+00 at_rel=(1,1,1)
KDM6AD_DIRECT_PARITY_TEMP qs max_abs= 0.00000E+00 at_abs=(1,1,1) max_rel= 0.00000E+00 at_rel=(1,1,1)
KDM6AD_DIRECT_PARITY_TEMP qg max_abs= 0.00000E+00 at_abs=(1,1,1) max_rel= 0.00000E+00 at_rel=(1,1,1)
KDM6AD_DIRECT_PARITY_TEMP qnn max_abs= 2.43760E+04 at_abs=(62,8,90) max_rel= 2.43760E-04 at_rel=(62,8,90)
KDM6AD_DIRECT_PARITY_TEMP qnc max_abs= 0.00000E+00 at_abs=(1,1,1) max_rel= 0.00000E+00 at_rel=(1,1,1)
KDM6AD_DIRECT_PARITY_TEMP qni max_abs= 0.00000E+00 at_abs=(1,1,1) max_rel= 0.00000E+00 at_rel=(1,1,1)
KDM6AD_DIRECT_PARITY_TEMP qnr max_abs= 0.00000E+00 at_abs=(1,1,1) max_rel= 0.00000E+00 at_rel=(1,1,1)
KDM6AD_DIRECT_PARITY_TEMP qib max_abs= 0.00000E+00 at_abs=(1,1,1) max_rel= 0.00000E+00 at_rel=(1,1,1)
Timing for main: time 2007-06-01_00:00:45 on domain   1:    0.59988 elapsed seconds
 KDM6AD_DIAG enter wrapper im/km/jm/dt=         100          34         100   5.00000000    
 KDM6AD_DIAG after scratch allocation
 KDM6AD_DIAG after host_to_double copy
 KDM6AD_DIAG after kdm6_step rc=           0
 KDM6AD_DIAG after handle_close rc=           0
 KDM6AD_DIAG before double_to_host copy
 KDM6AD_DIAG after double_to_host copy
 KDM6AD_STATE th min/max=   298.260193       715.944519    
 KDM6AD_STATE qv min/max=   0.00000000       1.81318596E-02
 KDM6AD_STATE qc min/max=   0.00000000       0.00000000    
 KDM6AD_STATE qi min/max=   0.00000000       0.00000000    
 KDM6AD_STATE nc min/max=   0.00000000       0.00000000    
 KDM6AD_DIAG leaving wrapper
