taskid: 0 hostname: 10.nate.com
Quilting with   1 groups of   0 I/O tasks.
 Ntasks in X            1 , ntasks in Y            1
  Domain # 1: dx =  1000.000 m
WRF V4.6.0 MODEL
git commit 59b8085041e8a5e1c83da21ca564bb0bb4cd3297 1 file changed, 12 insertions(+)
 *************************************
 Parent domain
 ids,ide,jds,jde            1         101           1         101
 ims,ime,jms,jme           -4         106          -4         106
 ips,ipe,jps,jpe            1         101           1         101
 *************************************
DYNAMICS OPTION: Eulerian Mass Coordinate
   alloc_space_field: domain            1 ,             316752708  bytes allocated
  med_initialdata_input: calling input_input
   Input data is acceptable to use: wrfinput_d01
 CURRENT DATE          = 2007-06-01_00:00:00
 SIMULATION START DATE = 2007-06-01_00:00:00
Timing for processing wrfinput file (stream 0) for domain        1:    0.11952 elapsed seconds
Max map factor in domain 1 =  1.00. Scale the dt in the model accordingly.
 LANDUSE TYPE = USGS FOUND          27  CATEGORIES
INPUT LandUse = "USGS"
 LANDUSE TYPE = "USGS" FOUND          61  CATEGORIES           2  SEASONS WATER CATEGORY =           16  SNOW CATEGORY =            0
Timing for Writing wrfout_d01_2007-06-01_00:00:00 for domain        1:    0.20972 elapsed seconds
 Tile Strategy is not specified. Assuming 1D-Y
WRF TILE   1 IS      1 IE    101 JS      1 JE    101
WRF NUMBER OF TILES =   1
d01 2007-06-01_00:00:00  ----------------------------------------
d01 2007-06-01_00:00:00  W-DAMPING  BEGINS AT W-COURANT NUMBER =    1.00000000
d01 2007-06-01_00:00:00  ----------------------------------------
Timing for main: time 2007-06-01_00:00:05 on domain   1:    2.07273 elapsed seconds
Timing for main: time 2007-06-01_00:00:10 on domain   1:    0.34468 elapsed seconds
Timing for main: time 2007-06-01_00:00:15 on domain   1:    0.34139 elapsed seconds
Timing for main: time 2007-06-01_00:00:20 on domain   1:    0.34151 elapsed seconds
Timing for main: time 2007-06-01_00:00:25 on domain   1:    0.34037 elapsed seconds
Timing for main: time 2007-06-01_00:00:30 on domain   1:    0.34140 elapsed seconds
Timing for main: time 2007-06-01_00:00:35 on domain   1:    0.34162 elapsed seconds
Timing for main: time 2007-06-01_00:00:40 on domain   1:    0.34150 elapsed seconds
Timing for main: time 2007-06-01_00:00:45 on domain   1:    0.34117 elapsed seconds
Timing for main: time 2007-06-01_00:00:50 on domain   1:    0.34374 elapsed seconds
Timing for main: time 2007-06-01_00:00:55 on domain   1:    0.34047 elapsed seconds
Timing for main: time 2007-06-01_00:01:00 on domain   1:    0.34180 elapsed seconds
