taskid: 0 hostname: Yongui-MacBookPro.local
