taskid: 0 hostname: 10.nate.com
 starting wrf task            0  of            1
 ./module_io_quilt_old.F        2931 F
Quilting with   1 groups of   0 I/O tasks.
 Ntasks in X            1 , ntasks in Y            1
  Domain # 1: dx =  1000.000 m
WRF V4.6.0 MODEL
No git found or not a git repository, git commit version not available.
 *************************************
 Parent domain
 ids,ide,jds,jde            1         101           1         101
 ims,ime,jms,jme           -4         106          -4         106
 ips,ipe,jps,jpe            1         101           1         101
 *************************************
DYNAMICS OPTION: Eulerian Mass Coordinate
   alloc_space_field: domain            1 ,             309852948  bytes allocated
  med_initialdata_input: calling input_input
   Input data is acceptable to use: wrfinput_d01
 CURRENT DATE          = 2007-06-01_00:00:00
 SIMULATION START DATE = 2007-06-01_00:00:00
Timing for processing wrfinput file (stream 0) for domain        1:    0.10862 elapsed seconds
Max map factor in domain 1 =  1.00. Scale the dt in the model accordingly.
INPUT LandUse = "USGS"
 LANDUSE TYPE = "USGS" FOUND          61  CATEGORIES           2  SEASONS WATER CATEGORY =           16  SNOW CATEGORY =            0
Timing for Writing wrfout_d01_2007-06-01_00:00:00 for domain        1:    0.18069 elapsed seconds
 Tile Strategy is not specified. Assuming 1D-Y
WRF TILE   1 IS      1 IE    101 JS      1 JE    101
WRF NUMBER OF TILES =   1
d01 2007-06-01_00:00:00  ----------------------------------------
d01 2007-06-01_00:00:00  W-DAMPING  BEGINS AT W-COURANT NUMBER =    1.00000000
d01 2007-06-01_00:00:00  ----------------------------------------
 KDM6AD_DIAG enter wrapper im/km/jm/dt=         100          34         100   5.00000000    
 KDM6AD_DIAG after scratch allocation
 KDM6AD_DIAG after host_to_double copy
 KDM6AD_DIAG after kdm6_step rc=           0
 KDM6AD_DIAG after handle_close rc=           0
 KDM6AD_DIAG before double_to_host copy
 KDM6AD_DIAG after double_to_host copy
 KDM6AD_STATE th min/max=   298.338318       715.944763    
 KDM6AD_STATE qv min/max=   0.00000000       1.81113649E-02
 KDM6AD_STATE qc min/max=   0.00000000       0.00000000    
 KDM6AD_STATE qi min/max=   0.00000000       0.00000000    
 KDM6AD_STATE nc min/max=   0.00000000       0.00000000    
 KDM6AD_DIAG leaving wrapper
Timing for main: time 2007-06-01_00:00:05 on domain   1:    2.00468 elapsed seconds
 KDM6AD_DIAG enter wrapper im/km/jm/dt=         100          34         100   5.00000000    
 KDM6AD_DIAG after scratch allocation
 KDM6AD_DIAG after host_to_double copy
 KDM6AD_DIAG after kdm6_step rc=           0
 KDM6AD_DIAG after handle_close rc=           0
 KDM6AD_DIAG before double_to_host copy
 KDM6AD_DIAG after double_to_host copy
 KDM6AD_STATE th min/max=   298.325317       715.942749    
 KDM6AD_STATE qv min/max=   0.00000000       1.81130841E-02
 KDM6AD_STATE qc min/max=   0.00000000       0.00000000    
 KDM6AD_STATE qi min/max=   0.00000000       0.00000000    
 KDM6AD_STATE nc min/max=   0.00000000       0.00000000    
 KDM6AD_DIAG leaving wrapper
Timing for main: time 2007-06-01_00:00:10 on domain   1:    0.50882 elapsed seconds
 KDM6AD_DIAG enter wrapper im/km/jm/dt=         100          34         100   5.00000000    
 KDM6AD_DIAG after scratch allocation
 KDM6AD_DIAG after host_to_double copy
 KDM6AD_DIAG after kdm6_step rc=           0
 KDM6AD_DIAG after handle_close rc=           0
 KDM6AD_DIAG before double_to_host copy
 KDM6AD_DIAG after double_to_host copy
 KDM6AD_STATE th min/max=   298.313049       715.944946    
 KDM6AD_STATE qv min/max=   0.00000000       1.81151349E-02
 KDM6AD_STATE qc min/max=   0.00000000       0.00000000    
 KDM6AD_STATE qi min/max=   0.00000000       0.00000000    
 KDM6AD_STATE nc min/max=   0.00000000       0.00000000    
 KDM6AD_DIAG leaving wrapper
Timing for main: time 2007-06-01_00:00:15 on domain   1:    0.49417 elapsed seconds
 KDM6AD_DIAG enter wrapper im/km/jm/dt=         100          34         100   5.00000000    
 KDM6AD_DIAG after scratch allocation
 KDM6AD_DIAG after host_to_double copy
 KDM6AD_DIAG after kdm6_step rc=           0
 KDM6AD_DIAG after handle_close rc=           0
 KDM6AD_DIAG before double_to_host copy
 KDM6AD_DIAG after double_to_host copy
 KDM6AD_STATE th min/max=   298.301422       715.945923    
 KDM6AD_STATE qv min/max=   0.00000000       1.81173552E-02
 KDM6AD_STATE qc min/max=   0.00000000       0.00000000    
 KDM6AD_STATE qi min/max=   0.00000000       0.00000000    
 KDM6AD_STATE nc min/max=   0.00000000       0.00000000    
 KDM6AD_DIAG leaving wrapper
Timing for main: time 2007-06-01_00:00:20 on domain   1:    0.50944 elapsed seconds
 KDM6AD_DIAG enter wrapper im/km/jm/dt=         100          34         100   5.00000000    
 KDM6AD_DIAG after scratch allocation
 KDM6AD_DIAG after host_to_double copy
 KDM6AD_DIAG after kdm6_step rc=           0
 KDM6AD_DIAG after handle_close rc=           0
 KDM6AD_DIAG before double_to_host copy
 KDM6AD_DIAG after double_to_host copy
 KDM6AD_STATE th min/max=   298.290588       715.944824    
 KDM6AD_STATE qv min/max=   0.00000000       1.81197114E-02
 KDM6AD_STATE qc min/max=   0.00000000       0.00000000    
 KDM6AD_STATE qi min/max=   0.00000000       0.00000000    
 KDM6AD_STATE nc min/max=   0.00000000       0.00000000    
 KDM6AD_DIAG leaving wrapper
Timing for main: time 2007-06-01_00:00:25 on domain   1:    0.50088 elapsed seconds
 KDM6AD_DIAG enter wrapper im/km/jm/dt=         100          34         100   5.00000000    
 KDM6AD_DIAG after scratch allocation
 KDM6AD_DIAG after host_to_double copy
 KDM6AD_DIAG after kdm6_step rc=           0
 KDM6AD_DIAG after handle_close rc=           0
 KDM6AD_DIAG before double_to_host copy
 KDM6AD_DIAG after double_to_host copy
 KDM6AD_STATE th min/max=   298.280487       715.943970    
 KDM6AD_STATE qv min/max=   0.00000000       1.81221608E-02
 KDM6AD_STATE qc min/max=   0.00000000       0.00000000    
 KDM6AD_STATE qi min/max=   0.00000000       0.00000000    
 KDM6AD_STATE nc min/max=   0.00000000       0.00000000    
 KDM6AD_DIAG leaving wrapper
Timing for main: time 2007-06-01_00:00:30 on domain   1:    0.49430 elapsed seconds
 KDM6AD_DIAG enter wrapper im/km/jm/dt=         100          34         100   5.00000000    
 KDM6AD_DIAG after scratch allocation
 KDM6AD_DIAG after host_to_double copy
 KDM6AD_DIAG after kdm6_step rc=           0
 KDM6AD_DIAG after handle_close rc=           0
 KDM6AD_DIAG before double_to_host copy
 KDM6AD_DIAG after double_to_host copy
 KDM6AD_STATE th min/max=   298.271118       715.941528    
 KDM6AD_STATE qv min/max=   0.00000000       1.81246940E-02
 KDM6AD_STATE qc min/max=   0.00000000       0.00000000    
 KDM6AD_STATE qi min/max=   0.00000000       0.00000000    
 KDM6AD_STATE nc min/max=   0.00000000       0.00000000    
 KDM6AD_DIAG leaving wrapper
Timing for main: time 2007-06-01_00:00:35 on domain   1:    0.49199 elapsed seconds
 KDM6AD_DIAG enter wrapper im/km/jm/dt=         100          34         100   5.00000000    
 KDM6AD_DIAG after scratch allocation
 KDM6AD_DIAG after host_to_double copy
 KDM6AD_DIAG after kdm6_step rc=           0
 KDM6AD_DIAG after handle_close rc=           0
 KDM6AD_DIAG before double_to_host copy
 KDM6AD_DIAG after double_to_host copy
 KDM6AD_STATE th min/max=   298.262512       715.941589    
 KDM6AD_STATE qv min/max=   0.00000000       1.81273613E-02
 KDM6AD_STATE qc min/max=   0.00000000       0.00000000    
 KDM6AD_STATE qi min/max=   0.00000000       0.00000000    
 KDM6AD_STATE nc min/max=   0.00000000       0.00000000    
 KDM6AD_DIAG leaving wrapper
Timing for main: time 2007-06-01_00:00:40 on domain   1:    0.49057 elapsed seconds
 KDM6AD_DIAG enter wrapper im/km/jm/dt=         100          34         100   5.00000000    
 KDM6AD_DIAG after scratch allocation
 KDM6AD_DIAG after host_to_double copy
 KDM6AD_DIAG after kdm6_step rc=           0
 KDM6AD_DIAG after handle_close rc=           0
 KDM6AD_DIAG before double_to_host copy
 KDM6AD_DIAG after double_to_host copy
 KDM6AD_STATE th min/max=   298.254669       715.941772    
 KDM6AD_STATE qv min/max=   0.00000000       1.81301199E-02
 KDM6AD_STATE qc min/max=   0.00000000       0.00000000    
 KDM6AD_STATE qi min/max=   0.00000000       0.00000000    
 KDM6AD_STATE nc min/max=   0.00000000       0.00000000    
 KDM6AD_DIAG leaving wrapper
Timing for main: time 2007-06-01_00:00:45 on domain   1:    0.50197 elapsed seconds
 KDM6AD_DIAG enter wrapper im/km/jm/dt=         100          34         100   5.00000000    
 KDM6AD_DIAG after scratch allocation
 KDM6AD_DIAG after host_to_double copy
 KDM6AD_DIAG after kdm6_step rc=           0
 KDM6AD_DIAG after handle_close rc=           0
 KDM6AD_DIAG before double_to_host copy
 KDM6AD_DIAG after double_to_host copy
 KDM6AD_STATE th min/max=   298.247528       715.943604    
 KDM6AD_STATE qv min/max=   0.00000000       1.81329492E-02
 KDM6AD_STATE qc min/max=   0.00000000       0.00000000    
 KDM6AD_STATE qi min/max=   0.00000000       0.00000000    
 KDM6AD_STATE nc min/max=   0.00000000       0.00000000    
 KDM6AD_DIAG leaving wrapper
